[TITLE]


[JUNCTIONS]
;ID              	Elev        	Demand      	Pattern         
 2               	0           	0           	                	;
 3               	0           	0           	                	;
 4               	5           	1           	1               	;
 5               	0           	1           	1               	;
 6               	0           	1           	1               	;
 7               	0           	1           	1               	;
 8               	0           	1           	1               	;
 9               	0           	1           	1               	;
 10              	0           	1           	1               	;

[RESERVOIRS]
;ID              	Head        	Pattern         
 in              	10          	                	;

[TANKS]
;ID              	Elevation   	InitLevel   	MinLevel    	MaxLevel    	Diameter    	MinVol      	VolCurve
 11              	0           	10          	0           	20          	50          	0           	                	;

[PIPES]
;ID              	Node1           	Node2           	Length      	Diameter    	Roughness   	MinorLoss   	Status
 1               	in              	2               	100         	100         	0.1         	0           	Open  	;
 3               	3               	4               	100         	100         	0.1         	0           	Open  	;
 4               	4               	5               	100         	100         	0.1         	0           	Open  	;
 5               	5               	6               	100         	100         	0.1         	0           	Open  	;
 6               	6               	7               	100         	100         	0.1         	0           	Open  	;
 7               	7               	8               	100         	100         	0.1         	0           	Open  	;
 8               	8               	9               	100         	100         	0.1         	0           	Open  	;
 10              	5               	8               	100         	100         	0.1         	0           	Open  	;
 11              	4               	9               	100         	150         	0.1         	0.1         	Open  	;
 12              	9               	11              	100         	100         	0.1         	0           	Open  	;

[PUMPS]
;ID              	Node1           	Node2           	Parameters
 2               	2               	3               	HEAD 1	;

[VALVES]
;ID              	Node1           	Node2           	Diameter    	Type	Setting     	MinorLoss   
 9               	9               	10              	100         	PRV 	5           	0           	;

[TAGS]

[DEMANDS]
;Junction        	Demand      	Pattern         	Category

[STATUS]
;ID              	Status/Setting

[PATTERNS]
;ID              	Multipliers
;
 1               	1           	2           	3           	4           

[CURVES]
;ID              	X-Value     	Y-Value
;PUMP: 
 1               	100         	50          

[CONTROLS]

[RULES]

[ENERGY]
 Global Efficiency  	75
 Global Price       	0
 Demand Charge      	0

[EMITTERS]
;Junction        	Coefficient

[QUALITY]
;Node            	InitQual

[SOURCES]
;Node            	Type        	Quality     	Pattern

[REACTIONS]
;Type     	Pipe/Tank       	Coefficient


[REACTIONS]
 Order Bulk            	1
 Order Tank            	1
 Order Wall            	1
 Global Bulk           	0
 Global Wall           	0
 Limiting Potential    	0
 Roughness Correlation 	0

[MIXING]
;Tank            	Model

[TIMES]
 Duration           	0
 Hydraulic Timestep 	1:00
 Quality Timestep   	0:05
 Pattern Timestep   	1:00
 Pattern Start      	0:00
 Report Timestep    	1:00
 Report Start       	0:00
 Start ClockTime    	12 am
 Statistic          	None

[REPORT]
 Status             	No
 Summary            	No
 Page               	0

[OPTIONS]
 Units              	CMH
 Headloss           	D-W
 Specific Gravity   	1
 Viscosity          	1
 Trials             	40
 Accuracy           	0.001
 CHECKFREQ          	2
 MAXCHECK           	10
 DAMPLIMIT          	0
 Unbalanced         	Continue 10
 Pattern            	1
 Demand Multiplier  	1.0
 Emitter Exponent   	0.5
 Quality            	None mg/L
 Diffusivity        	1
 Tolerance          	0.01

[COORDINATES]
;Node            	X-Coord         	Y-Coord
 2               	648.91          	5747.69         
 3               	1155.46         	5747.69         
 4               	2103.02         	5747.69         
 5               	2104.94         	4506.17         
 6               	2103.02         	3709.56         
 7               	3884.90         	3709.56         
 8               	3884.90         	4508.12         
 9               	3884.90         	5747.69         
 10              	5184.06         	5753.65         
 in              	166.19          	5747.69         
 11              	3884.90         	6558.18         

[VERTICES]
;Link            	X-Coord         	Y-Coord

[LABELS]
;X-Coord           Y-Coord          Label & Anchor Node

[BACKDROP]
 DIMENSIONS     	0.00            	0.00            	10000.00        	10000.00        
 UNITS          	None
 FILE           	
 OFFSET         	0.00            	0.00            

[END]
